data_str_m4_o5_o14_f0_acs.sym.79
_audit_creation_date              2012-12-11T15:59:48-0500
_audit_creation_method            fapswitch 2.2
_symmetry_space_group_name_H-M    P1
_symmetry_Int_Tables_number       1
_space_group_crystal_system       triclinic
_cell_length_a                    10.75872
_cell_length_b                    10.734531
_cell_length_c                    17.037127
_cell_angle_alpha                 99.356099
_cell_angle_beta                  99.682325
_cell_angle_gamma                 61.236
_cell_volume                      1692.65457057

loop_
_atom_site_label
_atom_site_type_symbol
_atom_type_description
_atom_site_fract_x
_atom_site_fract_y
_atom_site_fract_z
_atom_type_partial_charge
C1    C     C_R   0.358520 0.763998 0.395811 0.628439
C2    C     C_R   0.876567 0.322979 0.343003 -0.013533
C3    C     C_R   0.360508 0.805309 0.153164 0.006416
C4    C     C_R   0.368493 0.345016 0.358259 0.583003
C5    C     C_R   0.456383 0.833236 0.211534 -0.004114
C6    C     C_R   0.434189 0.850753 0.292877 -0.059163
C7    C     C_R   0.293750 0.722329 0.252080 0.189569
C8    C     C_R   0.291645 0.736571 0.173146 -0.103436
C9    C     C_R   0.575601 0.837937 0.191314 0.227657
C10   C     C_R   0.655881 0.883168 0.250466 -0.086325
C11   C     C_R   0.620452 0.925496 0.328748 0.233832
C12   C     C_R   0.936578 0.171962 0.218310 0.012362
C13   C     C_R   0.504921 0.913630 0.350317 0.239285
C14   C     C_R   0.351139 0.792793 0.313658 0.036828
C15   C     C_R   0.337713 0.339407 0.824294 -0.027547
C16   C     C_R   0.784354 0.373792 0.407689 0.542144
C17   C     C_R   0.458946 0.237470 0.785879 -0.032731
C18   C     C_R   0.442826 0.210572 0.702741 0.005728
C19   C     C_R   0.224791 0.436971 0.697556 -0.081818
C20   C     C_R   0.223852 0.446187 0.779931 0.217607
C21   C     C_R   0.591419 0.153069 0.828622 -0.077435
C22   C     C_R   0.695084 0.027670 0.791217 0.264346
C23   C     C_R   0.915446 0.189518 0.300301 0.020555
C24   C     C_R   0.665648 0.987671 0.711118 -0.048391
C25   C     C_R   0.540819 0.077578 0.667161 -0.121928
C26   C     C_R   0.334643 0.321414 0.658124 -0.045472
C27   C     C_1   0.816820 0.342120 0.709101 -0.013618
C28   C     C_R   0.358083 0.769802 0.627239 0.554001
C29   C     C_1   0.843633 0.314150 0.776962 -0.016075
C30   C     C_1   0.339019 0.811101 0.709316 -0.024894
C31   C     C_1   0.312691 0.839017 0.777367 -0.014573
C32   C     C_R   0.961184 0.281056 0.100270 0.550281
C33   C     C_R   0.318079 0.297638 0.120577 0.542080
C34   C     C_R   0.905020 0.421128 0.315547 -0.147750
C35   C     C_R   0.299085 0.884784 0.082678 0.560024
C36   C     C_R   0.885336 0.297741 0.859295 0.559762
C37   C     C_R   0.309786 0.296013 0.894491 0.530076
C38   C     C_R   0.278528 0.885380 0.857189 0.558101
C39   C     C_R   0.368308 0.345011 0.583491 0.548125
C40   C     C_R   0.773120 0.380695 0.629767 0.547831
C41   C     C_1   0.340790 0.331497 0.274967 0.028778
C42   C     C_1   0.329757 0.321287 0.204061 0.024655
C43   C     C_R   0.942702 0.284942 0.185592 -0.019477
C44   C     C_1   0.965903 0.511541 0.216887 0.242024
C45   C     C_R   0.940684 0.402077 0.239002 -0.044930
C46   C     C_R   0.948327 0.042838 0.174532 -0.098449
C47   C     C_R   0.955152 0.933772 0.211978 -0.162399
C48   C     C_R   0.950486 0.948139 0.293865 -0.094656
C49   C     C_R   0.931103 0.074626 0.337911 -0.042719
Cr1   Cr    Cr6+3 0.608100 0.610860 0.522250 1.026963
Cr2   Cr    Cr6+3 0.288890 0.599990 0.488420 1.035391
Cr3   Cr    Cr6+3 0.603040 0.289190 0.489390 1.039514
Cr4   Cr    Cr6+3 0.053960 0.052250 0.967380 1.013579
Cr5   Cr    Cr6+3 0.059890 0.373160 0.992710 1.067493
Cr6   Cr    Cr6+3 0.373370 0.061690 0.991710 1.057017
H1    H     H_    0.889803 0.519315 0.352008 0.148048
H2    H     H_    0.930077 0.081180 0.401867 0.143846
H3    H     H_    0.231244 0.698377 0.127574 0.152941
H4    H     H_    0.666251 0.009021 0.433824 0.338936
H5    H     H_    0.534574 0.939195 0.465459 0.309980
H6    H     H_    0.145120 0.578638 0.871615 0.338896
H7    H     H_    0.825753 0.981341 0.888223 0.322490
H8    H     H_    0.159234 0.683742 0.288890 0.349164
H9    H     H_    0.706023 0.794322 0.112011 0.322052
H10   H     H_    0.746074 0.887038 0.234691 0.137738
H11   H     H_    0.142695 0.524342 0.664988 0.168771
H12   H     H_    0.612017 0.182382 0.891536 0.117143
H13   H     H_    0.741261 0.888149 0.682222 0.145859
H14   H     H_    0.521950 0.043136 0.605075 0.137359
H15   H     H_    0.950014 0.018975 0.111506 0.182722
H16   H     H_    0.965289 0.836909 0.176639 0.142599
H17   H     H_    0.956593 0.863156 0.323319 0.151667
N1    N     N_1   0.985243 0.599406 0.198742 -0.328182
O1    O     O_R   0.749810 0.499790 0.438040 -0.527539
O2    O     O_R   0.411730 0.181020 0.091530 -0.515689
O3    O     O_R   0.365010 0.944360 0.063320 -0.442340
O4    O     O_R   0.477660 0.726260 0.439290 -0.480070
O5    O     O_R   0.159380 0.906670 0.876210 -0.473158
O6    O     O_R   0.930820 0.177420 0.886730 -0.492070
O7    O     O_R   0.910360 0.395420 0.895720 -0.478561
O8    O     O_R   0.186010 0.361730 0.919870 -0.483095
O9    O     O_R   0.400000 0.173010 0.914630 -0.516757
O10   O     O_R   0.354140 0.936940 0.899340 -0.487963
O11   O     O_3   0.162410 0.162370 0.983930 -0.291344
O12   O     O_R   0.298970 0.468800 0.557390 -0.508865
O13   O     O_R   0.260150 0.743000 0.412270 -0.523503
O14   O     O_R   0.297740 0.466550 0.394720 -0.482485
O15   O     O_R   0.488080 0.253500 0.386430 -0.477938
O16   O     O_R   0.722670 0.303800 0.421940 -0.488276
O17   O     O_R   0.751130 0.502220 0.613520 -0.501230
O18   O     O_R   0.478890 0.728510 0.601960 -0.499153
O19   O     O_R   0.261470 0.745430 0.587750 -0.509565
O20   O     O_3   0.703570 0.974664 0.381232 -0.713822
O21   O     O_3   0.452939 0.971443 0.423521 -0.700034
O22   O     O_3   0.112340 0.562000 0.814818 -0.643863
O23   O     O_R   0.489400 0.255930 0.561910 -0.519978
O24   O     O_3   0.822596 0.939688 0.831982 -0.650728
O25   O     O_3   0.251543 0.627492 0.266818 -0.689332
O26   O     O_3   0.620457 0.784165 0.115959 -0.655848
O27   O     O_R   0.723890 0.306050 0.584610 -0.506406
O28   O     O_3   0.500010 0.500010 0.500020 -0.260705
O29   O     O_R   0.171100 0.914680 0.053100 -0.566394
O30   O     O_R   0.941680 0.184840 0.050710 -0.531352
O31   O     O_R   0.922080 0.403420 0.072610 -0.471017
O32   O     O_R   0.196880 0.369150 0.083850 -0.504980

loop_
_geom_bond_atom_site_label_1
_geom_bond_atom_site_label_2
_ccdc_geom_bond_type
C34   H1    S    
C7    O25   S    
C38   O10   A    
C27   C29   T    
C1    O4    A    
C41   C42   T    
C19   C20   A    
C18   C26   A    
C35   O29   A    
Cr2   O12   S    
Cr5   O11   S    
C7    C8    A    
C4    O14   A    
C29   C36   S    
Cr4   O11   S    
C16   O1    A    
C33   C42   S    
Cr5   O31   S    
Cr4   O6    S    
H8    O25   S    
Cr1   O1    S    
C30   C31   T    
C26   C39   S    
C23   C49   A    
C4    C41   S    
C49   H2    S    
C19   H11   S    
C19   C26   A    
C15   C37   S    
C8    H3    S    
C33   O2    A    
H9    O26   S    
C32   O31   A    
C2    C16   S    
C9    C10   A    
C27   C40   S    
Cr6   O2    S    
C2    C34   A    
C16   O16   A    
C9    O26   S    
C22   O24   S    
C21   C22   A    
C21   H12   S    
C37   O8    A    
Cr3   O16   S    
C18   C25   A    
C48   H17   S    
Cr2   O13   S    
Cr1   O17   S    
Cr5   O7    S    
C7    C14   A    
C15   C20   A    
Cr3   O28   S    
C35   O3    A    
Cr3   O15   S    
C33   O32   A    
C24   C25   A    
C12   C46   A    
C3    C8    A    
C36   O7    A    
Cr2   O14   S    
C38   O5    A    
Cr3   O27   S    
C17   C21   A    
C5    C9    A    
Cr2   O19   S    
C6    C14   A    
H7    O24   S    
C47   C48   A    
C12   C23   A    
C3    C35   S    
Cr4   O29   S    
C17   C18   A    
C32   O30   A    
C28   O19   A    
C34   C45   A    
Cr6   O9    S    
C43   C45   A    
C47   H16   S    
Cr6   O3    S    
C48   C49   A    
C20   O22   S    
C22   C24   A    
C37   O9    A    
C25   H14   S    
C39   O12   A    
Cr6   O10   S    
Cr1   O4    S    
C44   C45   S    
C10   H10   S    
C1    O13   A    
C15   C17   A    
C46   C47   A    
Cr5   O32   S    
C3    C5    A    
C36   O6    A    
C40   O27   A    
H6    O22   S    
C4    O15   A    
C12   C43   A    
C31   C38   S    
C13   O21   S    
C28   C30   S    
Cr4   O5    S    
C6    C13   A    
C11   C13   A    
C11   O20   S    
C5    C6    A    
Cr4   O30   S    
C32   C43   S    
Cr3   O23   S    
C28   O18   A    
C44   N1    T    
C39   O23   A    
C46   H15   S    
C10   C11   A    
C24   H13   S    
Cr1   O18   S    
Cr1   O28   S    
C2    C23   A    
C1    C14   S    
H4    O20   S    
C40   O17   A    
Cr6   O11   S    
Cr5   O8    S    
Cr2   O28   S    
H5    O21   S    
