data_str_m10_o46_o47_f0_idkba.sym.3
_audit_creation_date              2012-12-11T17:41:18-0500
_audit_creation_method            fapswitch 2.2
_symmetry_space_group_name_H-M    P1
_symmetry_Int_Tables_number       1
_space_group_crystal_system       triclinic
_cell_length_a                    8.175824
_cell_length_b                    12.660013
_cell_length_c                    14.223143
_cell_angle_alpha                 92.844197
_cell_angle_beta                  90.586074
_cell_angle_gamma                 98.375372
_cell_volume                      1454.45924687

loop_
_atom_site_label
_atom_site_type_symbol
_atom_type_description
_atom_site_fract_x
_atom_site_fract_y
_atom_site_fract_z
_atom_type_partial_charge
Ba1   Ba    Ba6+2 0.855630 0.555280 0.454520 1.633238
Ba2   Ba    Ba6+2 0.334200 0.444810 0.545490 1.635182
C1    C     C_3   0.601991 0.947329 0.178286 -0.419450
C2    C     C_R   0.183369 0.498751 0.195333 0.042199
C3    C     C_R   0.338442 0.551384 0.225125 -0.314652
C4    C     C_3   0.145322 0.804054 0.194955 0.364600
C5    C     C_R   0.451846 0.598558 0.161593 -0.000490
C6    C     C_R   0.407280 0.600753 0.066112 0.056843
C7    C     C_R   0.248883 0.551962 0.033913 0.018335
C8    C     C_R   0.137478 0.497009 0.097576 -0.052552
C9    C     C_R   0.051428 0.501666 0.901728 -0.040367
C10   C     C_R   0.940162 0.446917 0.965205 -0.004452
C11   C     C_R   0.006686 0.499788 0.803878 0.038931
C12   C     C_3   0.648910 0.857873 0.235867 0.338849
C13   C     C_R   0.852531 0.446265 0.773712 -0.290525
C14   C     C_R   0.738798 0.400336 0.837508 0.019911
C15   C     C_R   0.782944 0.398281 0.932465 -0.151502
C16   C     C_3   0.130222 0.841059 0.095495 -0.366102
C17   C     C_R   0.202569 0.555986 0.938234 -0.025001
C18   C     C_R   0.764338 0.176645 0.536200 -0.276675
C19   C     C_R   0.429429 0.812991 0.460895 -0.285963
C20   C     C_R   0.406235 0.994771 0.427377 -0.105455
C21   C     C_R   0.341199 0.887256 0.422662 -0.008809
C22   C     C_R   0.576546 0.846088 0.511890 0.069170
C23   C     C_3   0.475763 0.310489 0.258174 0.303378
C24   C     C_R   0.641417 0.956818 0.521405 -0.057478
C25   C     C_R   0.555683 0.031432 0.476678 -0.061195
C26   C     C_R   0.619563 0.141272 0.484415 0.043086
C27   C     C_R   0.853438 0.104541 0.576543 -0.008651
C28   C     C_3   0.225496 0.762752 0.655946 0.278253
C29   C     C_R   0.789924 0.995628 0.572400 -0.092220
C30   C     C_3   0.240665 0.882472 0.677107 -0.357903
C31   C     C_3   0.969736 0.236557 0.343727 0.279340
C32   C     C_3   0.957425 0.117046 0.321985 -0.353113
C33   C     C_3   0.731671 0.680435 0.738717 0.313466
C34   C     C_3   0.456537 0.288468 0.152202 -0.388590
C35   C     C_3   0.800048 0.720305 0.835999 -0.399123
C36   C     C_3   0.046206 0.195874 0.805275 0.361798
C37   C     C_3   0.061114 0.159573 0.904988 -0.363775
C38   C     C_3   0.542320 0.142005 0.764490 0.344066
C39   C     C_3   0.590588 0.052338 0.821339 -0.413177
C40   C     C_R   0.984814 0.443258 0.061026 -0.033706
H1    H     H_    0.739186 0.892408 0.292025 0.080518
H2    H     H_    0.830074 0.648023 0.698627 0.017889
H3    H     H_    0.624978 0.616392 0.745937 0.052756
H4    H     H_    0.550709 0.006898 0.224950 0.106901
H5    H     H_    0.916349 0.776690 0.829610 0.136221
H6    H     H_    0.825392 0.652531 0.877376 0.061599
H7    H     H_    0.709422 0.763099 0.873995 0.137944
H8    H     H_    0.535288 0.820171 0.270227 -0.047942
H9    H     H_    0.507414 0.914000 0.124065 0.110117
H10   H     H_    0.357985 0.331932 0.285829 0.017895
H11   H     H_    0.576555 0.378569 0.271918 0.060581
H12   H     H_    0.327456 0.905957 0.737241 0.115917
H13   H     H_    0.351451 0.223774 0.136069 0.128845
H14   H     H_    0.432494 0.361588 0.117823 0.060461
H15   H     H_    0.571565 0.263616 0.123306 0.118468
H16   H     H_    0.712079 0.987394 0.142241 0.130794
H17   H     H_    0.171029 0.781724 0.044124 0.069201
H18   H     H_    0.127342 0.273637 0.800242 0.093424
H19   H     H_    0.915978 0.206813 0.792145 -0.070229
H20   H     H_    0.191696 0.152206 0.921879 0.153684
H21   H     H_    0.018996 0.218813 0.955944 0.068611
H22   H     H_    0.983705 0.080782 0.912058 0.108816
H23   H     H_    0.287816 0.926205 0.615201 0.083753
H24   H     H_    0.655076 0.179656 0.729164 -0.054043
H25   H     H_    0.450595 0.107632 0.709028 0.081844
H26   H     H_    0.686155 0.085530 0.875051 0.113499
H27   H     H_    0.640974 0.992881 0.774082 0.093985
H28   H     H_    0.063454 0.726551 0.199788 0.093970
H29   H     H_    0.481321 0.012150 0.858017 0.130219
H30   H     H_    0.374433 0.551480 0.298554 0.077557
H31   H     H_    0.694201 0.359776 0.980609 0.069319
H32   H     H_    0.817112 0.445244 0.700131 0.069298
H33   H     H_    0.898435 0.398276 0.106343 0.099452
H34   H     H_    0.117863 0.904509 0.695306 0.139629
H35   H     H_    0.286123 0.601693 0.892179 0.132572
H36   H     H_    0.335290 0.048621 0.394361 0.101177
H37   H     H_    0.859851 0.943047 0.607729 0.103169
H38   H     H_    0.813173 0.260955 0.540533 0.063588
H39   H     H_    0.275324 0.792316 0.207587 -0.075452
H40   H     H_    0.378065 0.729133 0.455763 0.070372
H41   H     H_    0.999827 0.849350 0.079047 0.152901
H42   H     H_    0.208672 0.919511 0.088579 0.110842
H43   H     H_    0.347250 0.741773 0.636383 0.012515
H44   H     H_    0.136066 0.741341 0.596496 0.077704
H45   H     H_    0.848260 0.256243 0.364979 0.002342
H46   H     H_    0.554038 0.731159 0.022207 0.184838
H47   H     H_    0.628924 0.613498 0.002397 0.189451
H48   H     H_    0.060718 0.258767 0.402205 0.082465
H49   H     H_    0.867830 0.092592 0.263296 0.115156
H50   H     H_    0.915278 0.072619 0.384424 0.085593
H51   H     H_    0.080285 0.096783 0.301480 0.141826
N1    N     N_3   0.522839 0.650521 0.000896 -0.515884
O1    O     O_2   0.887370 0.460630 0.272300 -0.465154
O2    O     O_2   0.195152 0.110997 0.568106 -0.483044
O3    O     O_3   0.094915 0.118662 0.741287 -0.602112
O4    O     O_3   0.129410 0.451380 0.388510 -0.494949
O5    O     O_3   0.575400 0.626570 0.547370 -0.486397
O6    O     O_2   0.344320 0.238700 0.455090 -0.466793
O7    O     O_3   0.513994 0.218403 0.299161 -0.650980
O8    O     O_2   0.399196 0.407411 0.835290 -0.489670
O9    O     O_3   0.469881 0.212881 0.824956 -0.594071
O10   O     O_3   0.670210 0.653170 0.329170 -0.473948
O11   O     O_2   0.792746 0.592679 0.166145 -0.496723
O12   O     O_3   0.679299 0.766590 0.695302 -0.644245
O13   O     O_3   0.017167 0.289043 0.262132 -0.639853
O14   O     O_3   0.722977 0.786975 0.176340 -0.596737
O15   O     O_2   0.845380 0.761330 0.544970 -0.475507
O16   O     O_3   0.088930 0.704860 0.376040 -0.488192
O17   O     O_2   0.002026 0.889378 0.434335 -0.485672
O18   O     O_3   0.098040 0.881208 0.259561 -0.599994
O19   O     O_2   0.302330 0.539400 0.727760 -0.462134
O20   O     O_3   0.060300 0.548700 0.611500 -0.497744
O21   O     O_3   0.519500 0.346920 0.670840 -0.470474
O22   O     O_3   0.173166 0.711107 0.737263 -0.642606
O23   O     O_3   0.614310 0.373510 0.452640 -0.479321
O24   O     O_3   0.100780 0.295230 0.623970 -0.486769
P1    P     P_3+3 0.054400 0.427280 0.286870 0.973150
P2    P     P_3+3 0.668300 0.742890 0.573060 0.971538
P3    P     P_3+3 0.132914 0.842813 0.373827 0.949315
P4    P     P_3+3 0.135310 0.572810 0.713130 0.968031
P5    P     P_3+3 0.060261 0.155934 0.626651 0.948595
P6    P     P_3+3 0.659253 0.655468 0.207124 0.949940
P7    P     P_3+3 0.526815 0.241580 0.421549 0.932775
P8    P     P_3+3 0.531504 0.344248 0.793288 0.963899

loop_
_geom_bond_atom_site_label_1
_geom_bond_atom_site_label_2
_ccdc_geom_bond_type
O17   P3    D    
Ba2   O20   S    
C31   O13   S    
C32   H51   S    
C5    P6    S    
Ba1   O5    S    
Ba2   O24   S    
C5    C6    A    
C21   P3    S    
C28   O22   S    
C37   H22   S    
C9    C17   A    
C40   H33   S    
O21   P8    S    
O22   P4    S    
C33   C35   S    
C23   H11   S    
C3    H30   S    
O16   P3    S    
C36   C37   S    
Ba2   O19   S    
C8    C40   A    
C13   C14   A    
Ba1   Ba2   S    
Ba1   P1    S    
O13   P1    S    
H47   N1    S    
C17   H35   S    
O9    P8    S    
C32   H49   S    
C10   C40   A    
Ba1   O15   S    
O5    P2    S    
C7    C17   A    
O19   P4    D    
C14   C15   A    
C38   H25   S    
C10   C15   A    
C16   H42   S    
C2    P1    S    
C35   H5    S    
C7    C8    A    
C39   H29   S    
C36   H19   S    
C12   O14   S    
Ba2   O6    S    
C24   C29   A    
C4    H39   S    
C38   H24   S    
C15   H31   S    
O14   P6    S    
C36   O3    S    
C30   H12   S    
Ba2   O23   S    
C31   C32   S    
C39   H26   S    
C18   C27   A    
Ba2   P4    S    
C4    C16   S    
H46   N1    S    
C22   P2    S    
C18   H38   S    
O6    P7    D    
O4    P1    S    
C6    N1    S    
C20   H36   S    
C34   H15   S    
C3    C5    A    
C1    H9    S    
C6    C7    A    
C18   C26   A    
O1    P1    D    
O11   P6    D    
C35   H6    S    
Ba1   P2    S    
C34   H14   S    
Ba1   O16   S    
C35   H7    S    
Ba2   O21   S    
O7    P7    S    
Ba1   O1    S    
C16   H41   S    
C24   C25   A    
Ba1   O23   S    
C28   H43   S    
C33   H2    S    
Ba1   O10   S    
C1    C12   S    
C36   H18   S    
C38   C39   S    
Ba2   O5    S    
C20   C25   A    
C11   C13   A    
C28   H44   S    
Ba1   O20   S    
C2    C8    A    
C33   H3    S    
C26   P7    S    
C39   H27   S    
C4    H28   S    
C37   H20   S    
O2    P5    D    
O12   P2    S    
C4    O18   S    
C22   C24   A    
C2    C3    A    
O8    P8    D    
Ba1   O4    S    
C30   H34   S    
C9    C10   A    
C29   H37   S    
O10   P6    S    
C37   H21   S    
C1    H4    S    
C19   C21   A    
C31   H45   S    
C23   H10   S    
O18   P3    S    
O3    P5    S    
C34   H13   S    
C31   H48   S    
C38   O9    S    
C28   C30   S    
C11   P4    S    
C9    C11   A    
C23   O7    S    
C12   H8    S    
O23   P7    S    
C27   P5    S    
O24   P5    S    
C32   H50   S    
C23   C34   S    
O20   P4    S    
C1    H16   S    
C16   H17   S    
C13   H32   S    
C19   H40   S    
Ba2   O4    S    
C27   C29   A    
C19   C22   A    
C25   C26   A    
C33   O12   S    
C20   C21   A    
C12   H1    S    
C14   P8    S    
O15   P2    D    
C30   H23   S    
